Version 4
SHEET 1 972 680
WIRE -496 -368 -576 -368
WIRE -400 -368 -496 -368
WIRE -288 -368 -400 -368
WIRE -576 -336 -576 -368
WIRE -496 -336 -496 -368
WIRE -400 -336 -400 -368
WIRE -288 -336 -288 -368
WIRE -880 -304 -1056 -304
WIRE -688 -304 -800 -304
WIRE -496 -240 -496 -272
WIRE -400 -240 -400 -272
WIRE -400 -240 -496 -240
WIRE -288 -240 -288 -256
WIRE -288 -240 -400 -240
WIRE -688 -208 -688 -304
WIRE -528 -208 -688 -208
WIRE -496 -208 -496 -240
WIRE -496 -208 -528 -208
WIRE -416 -208 -496 -208
WIRE -688 -160 -688 -208
WIRE -688 -160 -736 -160
WIRE -640 -160 -688 -160
WIRE -528 -160 -528 -208
WIRE -416 -160 -416 -208
WIRE -368 -160 -416 -160
WIRE -288 -160 -368 -160
WIRE -832 -144 -960 -144
WIRE -368 -128 -368 -160
WIRE -288 -128 -288 -160
WIRE -16 -112 -144 -112
WIRE 112 -112 -16 -112
WIRE 256 -112 112 -112
WIRE 112 -96 112 -112
WIRE -832 -80 -832 -144
WIRE -640 -80 -640 -96
WIRE -640 -80 -832 -80
WIRE 256 -64 256 -112
WIRE -736 -48 -736 -96
WIRE -736 -48 -800 -48
WIRE -640 -48 -640 -80
WIRE -368 -32 -368 -48
WIRE -288 -32 -288 -48
WIRE -288 -32 -368 -32
WIRE -192 -32 -288 -32
WIRE -16 -32 -16 -112
WIRE -1056 0 -1056 -304
WIRE -960 0 -960 -64
WIRE -960 0 -1056 0
WIRE -800 0 -800 -48
WIRE -800 0 -960 0
WIRE -688 16 -736 16
WIRE -640 16 -688 16
WIRE -496 16 -496 -208
WIRE -400 16 -496 16
WIRE -272 16 -400 16
WIRE -144 16 -144 -16
WIRE -144 16 -272 16
WIRE 112 16 112 -16
WIRE -688 64 -688 16
WIRE -608 64 -688 64
WIRE -576 64 -576 -272
WIRE -576 64 -608 64
WIRE -96 64 -576 64
WIRE -528 96 -560 96
WIRE -528 144 -528 96
WIRE -272 144 -272 16
WIRE -96 144 -96 64
WIRE -16 144 -16 32
WIRE -16 144 -96 144
WIRE 112 144 112 96
WIRE 112 144 -16 144
WIRE 256 144 256 0
WIRE 256 144 112 144
WIRE -608 160 -608 64
WIRE -400 160 -400 16
WIRE -528 272 -528 224
WIRE -400 272 -400 224
WIRE -400 272 -528 272
WIRE -272 272 -272 224
WIRE -272 272 -400 272
WIRE -608 288 -608 224
WIRE -560 288 -560 96
WIRE -560 288 -608 288
FLAG -528 -160 0
FLAG -864 -128 AC
SYMBOL polcap 0 32 R180
WINDOW 3 24 8 Left 2
WINDOW 0 24 57 Left 2
SYMATTR Value 47µ
SYMATTR InstName C1
SYMATTR Description Capacitor
SYMATTR Type cap
SYMATTR SpiceLine V=63 Irms=500m Rser=0.28 Lser=0
SYMBOL res 96 -112 R0
SYMATTR InstName R1
SYMATTR Value 1.2
SYMATTR SpiceLine tol=1 pwr=50
SYMBOL voltage -368 -32 R180
WINDOW 3 -229 385 Left 2
WINDOW 123 0 0 Left 2
SYMATTR Value PULSE(0 2.8 0 0 0 0.05 0.1)
SYMATTR SpiceLine Rser=500
SYMATTR InstName V1
SYMBOL ind 96 0 R0
SYMATTR InstName L1
SYMATTR Value 5µ
SYMBOL voltage -960 -160 R0
WINDOW 123 0 0 Left 2
WINDOW 39 24 44 Left 2
SYMATTR SpiceLine Rser=0.05
SYMATTR InstName V2
SYMATTR Value SINE(0 13.1 50)
SYMBOL irl2203 -192 -112 R0
SYMATTR InstName U1
SYMBOL diode 240 -64 R0
SYMATTR InstName D1
SYMBOL schottky -720 -160 M0
WINDOW 3 177 319 Left 2
SYMATTR Value MBRB2545CT
SYMATTR InstName D5
SYMATTR Description Diode
SYMATTR Type diode
SYMBOL schottky -656 -160 R0
WINDOW 3 -405 395 Left 2
SYMATTR Value MBRB2545CT
SYMATTR InstName D6
SYMATTR Description Diode
SYMATTR Type diode
SYMBOL schottky -752 -48 R0
WINDOW 3 -307 231 Left 2
SYMATTR Value MBRB2545CT
SYMATTR InstName D4
SYMATTR Description Diode
SYMATTR Type diode
SYMBOL schottky -656 -48 R0
WINDOW 3 -401 258 Left 2
SYMATTR Value MBRB2545CT
SYMATTR InstName D7
SYMATTR Description Diode
SYMATTR Type diode
SYMBOL cap -416 -336 R0
SYMATTR InstName C5
SYMATTR Value 100n
SYMBOL res -304 -144 R0
SYMATTR InstName R2
SYMATTR Value 10k
SYMBOL res -784 -320 R90
WINDOW 0 0 56 VBottom 2
WINDOW 3 44 73 VTop 2
SYMATTR InstName R3
SYMATTR Value 100Meg
SYMATTR SpiceLine tol=1 pwr=0.1
SYMBOL diode -560 -272 R180
WINDOW 0 24 64 Left 2
WINDOW 3 24 0 Left 2
SYMATTR InstName D2
SYMBOL cap -512 -336 R0
SYMATTR InstName C2
SYMATTR Value 47µ
SYMBOL res -304 -352 R0
SYMATTR InstName R4
SYMATTR Value 660
SYMBOL res -544 128 R0
SYMATTR InstName R5
SYMATTR Value 10k
SYMBOL zener -416 160 R0
SYMATTR InstName D3
SYMATTR Value 1N750
SYMATTR Description Diode
SYMATTR Type diode
SYMBOL res -288 128 R0
SYMATTR InstName R6
SYMATTR Value 10k
SYMBOL diode -624 160 R0
SYMATTR InstName D8
TEXT -64 184 Left 2 !.tran 0.5
TEXT -336 328 Left 2 ;40 HZ PWM 30% DUTY CYCLE
TEXT -224 -296 Left 2 ;MSP430 power usage
TEXT -776 104 Left 2 ;KBK20M silta
